#############################################################
#             ______       _    _          _   	            #
#            (_____ \     \ \  / /        | |               #
#             _____) )   _ \ \/ / |_  ____| |  	            #
#            |  ____/ | | | )  (|  _)/ _  | | 	            #
#            | |    | |_| |/ /\ \ |_( (_| | |___            #
#            |_|     \__  /_/  \_\___)__|_|_____)           #
#                   (____/                                  #
#---------------------(version    0.2.2)--------------------#
#       A Python package for random crystal generation      #
#       url: https://github.com/qzhu2017/pyxtal             #
#       @Zhu's group at University of Nevada Las Vegas      #
#############################################################
data_from_pyxtal

_symmetry_space_group_name_H-M 'Pmn21'
_symmetry_Int_Tables_number                   31
_symmetry_cell_setting              orthorhombic
_cell_length_a            5.910686
_cell_length_b            5.681914
_cell_length_c            3.185619
_cell_angle_alpha        90.000000
_cell_angle_beta         90.000000
_cell_angle_gamma        90.000000

loop_
 _symmetry_equiv_pos_site_id
 _symmetry_equiv_pos_as_xyz
1 'x, y, z'
2 '-x+1/2, -y, z+1/2'
3 'x+1/2, -y, z+1/2'
4 '-x, y, z'

loop_
 _atom_site_label
 _atom_site_type_symbol
 _atom_site_symmetry_multiplicity
 _atom_site_fract_x
 _atom_site_fract_y
 _atom_site_fract_z
 _atom_site_occupancy
Mn     Mn       4     0.809837    0.991558    0.999177 1
Mn     Mn       2     0.000000    0.439440    0.564477 1
O      O        4     0.309021    0.418993    0.758186 1
F      F        4     0.324060    0.540180    0.380070 1
F      F        2     0.000000    0.468567    0.078288 1
F      F        2     0.000000    0.190595    0.926792 1
#END

