#############################################################
#             ______       _    _          _   	            #
#            (_____ \     \ \  / /        | |               #
#             _____) )   _ \ \/ / |_  ____| |  	            #
#            |  ____/ | | | )  (|  _)/ _  | | 	            #
#            | |    | |_| |/ /\ \ |_( (_| | |___            #
#            |_|     \__  /_/  \_\___)__|_|_____)           #
#                   (____/                                  #
#---------------------(version    0.2.2)--------------------#
#       A Python package for random crystal generation      #
#       url: https://github.com/qzhu2017/pyxtal             #
#       @Zhu's group at University of Nevada Las Vegas      #
#############################################################
data_from_pyxtal

_symmetry_space_group_name_H-M 'Fmm2'
_symmetry_Int_Tables_number                   42
_symmetry_cell_setting              orthorhombic
_cell_length_a            4.081440
_cell_length_b           24.289060
_cell_length_c            7.080311
_cell_angle_alpha        90.000000
_cell_angle_beta         90.000000
_cell_angle_gamma        90.000000

loop_
 _symmetry_equiv_pos_site_id
 _symmetry_equiv_pos_as_xyz
1 'x, y, z'
2 '-x, -y, z'
3 'x, -y, z'
4 '-x, y, z'
5 'x, y+1/2, z+1/2'
6 '-x, -y+1/2, z+1/2'
7 'x, -y+1/2, z+1/2'
8 '-x, y+1/2, z+1/2'
9 'x+1/2, y, z+1/2'
10 '-x+1/2, -y, z+1/2'
11 'x+1/2, -y, z+1/2'
12 '-x+1/2, y, z+1/2'
13 'x+1/2, y+1/2, z'
14 '-x+1/2, -y+1/2, z'
15 'x+1/2, -y+1/2, z'
16 '-x+1/2, y+1/2, z'

loop_
 _atom_site_label
 _atom_site_type_symbol
 _atom_site_symmetry_multiplicity
 _atom_site_fract_x
 _atom_site_fract_y
 _atom_site_fract_z
 _atom_site_occupancy
Ce     Ce       4     0.000000    0.000000    0.871323 1
Se     Se       4     0.000000    0.000000    0.317205 1
Se     Se       4     0.000000    0.000000    0.132971 1
#END

