#############################################################
#             ______       _    _          _   	            #
#            (_____ \     \ \  / /        | |               #
#             _____) )   _ \ \/ / |_  ____| |  	            #
#            |  ____/ | | | )  (|  _)/ _  | | 	            #
#            | |    | |_| |/ /\ \ |_( (_| | |___            #
#            |_|     \__  /_/  \_\___)__|_|_____)           #
#                   (____/                                  #
#---------------------(version    0.2.2)--------------------#
#       A Python package for random crystal generation      #
#       url: https://github.com/qzhu2017/pyxtal             #
#       @Zhu's group at University of Nevada Las Vegas      #
#############################################################
data_from_pyxtal

_symmetry_space_group_name_H-M 'I4mm'
_symmetry_Int_Tables_number                  107
_symmetry_cell_setting                tetragonal
_cell_length_a            4.262837
_cell_length_b            4.262837
_cell_length_c            9.882309
_cell_angle_alpha        90.000000
_cell_angle_beta         90.000000
_cell_angle_gamma        90.000000

loop_
 _symmetry_equiv_pos_site_id
 _symmetry_equiv_pos_as_xyz
1 'x, y, z'
2 '-x, -y, z'
3 '-y, x, z'
4 'y, -x, z'
5 'x, -y, z'
6 '-x, y, z'
7 '-y, -x, z'
8 'y, x, z'
9 'x+1/2, y+1/2, z+1/2'
10 '-x+1/2, -y+1/2, z+1/2'
11 '-y+1/2, x+1/2, z+1/2'
12 'y+1/2, -x+1/2, z+1/2'
13 'x+1/2, -y+1/2, z+1/2'
14 '-x+1/2, y+1/2, z+1/2'
15 '-y+1/2, -x+1/2, z+1/2'
16 'y+1/2, x+1/2, z+1/2'

loop_
 _atom_site_label
 _atom_site_type_symbol
 _atom_site_symmetry_multiplicity
 _atom_site_fract_x
 _atom_site_fract_y
 _atom_site_fract_z
 _atom_site_occupancy
Nd     Nd       2     0.000000    0.000000    0.218315 1
Si     Si       2     0.000000    0.000000    0.712860 1
Si     Si       4     0.000000    0.500000    0.932017 1
Ir     Ir       2     0.000000    0.000000    0.989582 1
#END

