#############################################################
#             ______       _    _          _   	            #
#            (_____ \     \ \  / /        | |               #
#             _____) )   _ \ \/ / |_  ____| |  	            #
#            |  ____/ | | | )  (|  _)/ _  | | 	            #
#            | |    | |_| |/ /\ \ |_( (_| | |___            #
#            |_|     \__  /_/  \_\___)__|_|_____)           #
#                   (____/                                  #
#---------------------(version    0.2.2)--------------------#
#       A Python package for random crystal generation      #
#       url: https://github.com/qzhu2017/pyxtal             #
#       @Zhu's group at University of Nevada Las Vegas      #
#############################################################
data_from_pyxtal

_symmetry_space_group_name_H-M 'P-4n2'
_symmetry_Int_Tables_number                  118
_symmetry_cell_setting                tetragonal
_cell_length_a            7.905616
_cell_length_b            7.905616
_cell_length_c            9.201905
_cell_angle_alpha        90.000000
_cell_angle_beta         90.000000
_cell_angle_gamma        90.000000

loop_
 _symmetry_equiv_pos_site_id
 _symmetry_equiv_pos_as_xyz
1 'x, y, z'
2 '-x, -y, z'
3 'y, -x, -z'
4 '-y, x, -z'
5 'x+1/2, -y+1/2, z+1/2'
6 '-x+1/2, y+1/2, z+1/2'
7 'y+1/2, x+1/2, -z+1/2'
8 '-y+1/2, -x+1/2, -z+1/2'

loop_
 _atom_site_label
 _atom_site_type_symbol
 _atom_site_symmetry_multiplicity
 _atom_site_fract_x
 _atom_site_fract_y
 _atom_site_fract_z
 _atom_site_occupancy
Zn     Zn       4     0.000000    0.500000    0.338783 1
Zn     Zn       2     0.000000    0.000000    0.000000 1
P      P        4     0.661850    0.838150    0.250000 1
S      S        8     0.876231    0.791858    0.447522 1
S      S        8     0.572571    0.295768    0.529024 1
#END

