#############################################################
#             ______       _    _          _   	            #
#            (_____ \     \ \  / /        | |               #
#             _____) )   _ \ \/ / |_  ____| |  	            #
#            |  ____/ | | | )  (|  _)/ _  | | 	            #
#            | |    | |_| |/ /\ \ |_( (_| | |___            #
#            |_|     \__  /_/  \_\___)__|_|_____)           #
#                   (____/                                  #
#---------------------(version    0.2.2)--------------------#
#       A Python package for random crystal generation      #
#       url: https://github.com/qzhu2017/pyxtal             #
#       @Zhu's group at University of Nevada Las Vegas      #
#############################################################
data_from_pyxtal

_symmetry_space_group_name_H-M 'P3m1'
_symmetry_Int_Tables_number                  156
_symmetry_cell_setting                 hexagonal
_cell_length_a            7.625591
_cell_length_b            7.625591
_cell_length_c            4.480389
_cell_angle_alpha        90.000000
_cell_angle_beta         90.000000
_cell_angle_gamma       120.000000

loop_
 _symmetry_equiv_pos_site_id
 _symmetry_equiv_pos_as_xyz
1 'x, y, z'
2 '-y, x-y, z'
3 '-x+y, -x, z'
4 '-y, -x, z'
5 '-x+y, y, z'
6 'x, x-y, z'

loop_
 _atom_site_label
 _atom_site_type_symbol
 _atom_site_symmetry_multiplicity
 _atom_site_fract_x
 _atom_site_fract_y
 _atom_site_fract_z
 _atom_site_occupancy
Mn     Mn       1     0.666667    0.333333    0.179764 1
Mn     Mn       1     0.333333    0.666667    0.042067 1
Ni     Ni       1     0.000000    0.000000    0.999285 1
O      O        3     0.032036    0.967964    0.334182 1
O      O        6     0.462101    0.410825    0.726736 1
O      O        3     0.768530    0.231470    0.916402 1
O      O        1     0.333333    0.666667    0.648017 1
O      O        1     0.666667    0.333333    0.518249 1
#END

