#############################################################
#             ______       _    _          _   	            #
#            (_____ \     \ \  / /        | |               #
#             _____) )   _ \ \/ / |_  ____| |  	            #
#            |  ____/ | | | )  (|  _)/ _  | | 	            #
#            | |    | |_| |/ /\ \ |_( (_| | |___            #
#            |_|     \__  /_/  \_\___)__|_|_____)           #
#                   (____/                                  #
#---------------------(version    0.2.2)--------------------#
#       A Python package for random crystal generation      #
#       url: https://github.com/qzhu2017/pyxtal             #
#       @Zhu's group at University of Nevada Las Vegas      #
#############################################################
data_from_pyxtal

_symmetry_space_group_name_H-M 'P4/n'
_symmetry_Int_Tables_number                   85
_symmetry_cell_setting                tetragonal
_cell_length_a            6.754202
_cell_length_b            6.754202
_cell_length_c            4.463815
_cell_angle_alpha        90.000000
_cell_angle_beta         90.000000
_cell_angle_gamma        90.000000

loop_
 _symmetry_equiv_pos_site_id
 _symmetry_equiv_pos_as_xyz
1 'x, y, z'
2 '-x+1/2, -y+1/2, z'
3 '-y+1/2, x, z'
4 'y, -x+1/2, z'
5 '-x, -y, -z'
6 'x+1/2, y+1/2, -z'
7 'y+1/2, -x, -z'
8 '-y, x+1/2, -z'

loop_
 _atom_site_label
 _atom_site_type_symbol
 _atom_site_symmetry_multiplicity
 _atom_site_fract_x
 _atom_site_fract_y
 _atom_site_fract_z
 _atom_site_occupancy
V      V        2     0.250000    0.750000    0.000000 1
Mo     Mo       2     0.250000    0.750000    0.500000 1
O      O        8     0.559049    0.053875    0.478275 1
O      O        2     0.250000    0.250000    0.171556 1
#END

